# This file was generated by ISOCIF, version 2.3.11
# Harold T. Stokes and Branton J. Campbell
# Brigham Young University, Provo, Utah, USA
#
# Space Group:  12 A2/m       C2h-3
# Space-group preferences: monoclinic axes ab(c), monoclinic cell choice 1
# Lattice parameters: a=2.00000, b=3.00000, c=4.00000, alpha=90.00000, beta=90.00000, gamma=100.00000
# A 4f (1/2,1/4,1/4)
# B 8j (x,y,z), x=0.10000 , y=0.30000 , z=0.20000
 
data_isocif-output
_audit_creation_method ISOCIF
 
_cell_length_a    2.00000
_cell_length_b    3.00000
_cell_length_c    4.00000
_cell_angle_alpha 90.00000
_cell_angle_beta  90.00000
_cell_angle_gamma 100.00000
 
_symmetry_space_group_name_H-M "A 1 1 2/m"
_symmetry_Int_Tables_number 12
_space_group_reference_alt_setting_axes ab(c) 
_space_group_reference_alt_setting_cell 1
 
loop_
_space_group_symop_id
_space_group_symop_operation_xyz
1 x,y,z
2 -x,-y,z
3 -x,-y,-z
4 x,y,-z
5 x,y+1/2,z+1/2
6 -x,-y+1/2,z+1/2
7 -x,-y+1/2,-z+1/2
8 x,y+1/2,-z+1/2
 
loop_
_atom_site_label
_atom_site_type_symbol
_atom_site_symmetry_multiplicity
_atom_site_Wyckoff_label
_atom_site_fract_x
_atom_site_fract_y
_atom_site_fract_z
_atom_site_occupancy
A Fe   4 f 0.50000 0.25000 0.25000 1.00000
B O    8 j 0.10000 0.30000 0.20000 1.00000
 
