# This file was generated by ISOCIF, version 2.3.11
# Harold T. Stokes and Branton J. Campbell
# Brigham Young University, Provo, Utah, USA
#
# Space Group: 176 P6_3/m     C6h-2
# 
# Lattice parameters: a=2, b=2, c=5, alpha=90, beta=90, gamma=120
# A 4f (1/3,2/3,z), z=0.4
# B 12i (x,y,z), x=0.1, y=0.25, z=0.3
 
data_isocif-output
_audit_creation_method ISOCIF
 
_cell_length_a    2.00000
_cell_length_b    2.00000
_cell_length_c    5.00000
_cell_angle_alpha 90.00000
_cell_angle_beta  90.00000
_cell_angle_gamma 120.00000
 
_symmetry_space_group_name_H-M "P 63/m"
_symmetry_Int_Tables_number 176
 
loop_
_space_group_symop_id
_space_group_symop_operation_xyz
1 x,y,z
2 x-y,x,z+1/2
3 -y,x-y,z
4 -x,-y,z+1/2
5 -x+y,-x,z
6 y,-x+y,z+1/2
7 -x,-y,-z
8 -x+y,-x,-z+1/2
9 y,-x+y,-z
10 x,y,-z+1/2
11 x-y,x,-z
12 -y,x-y,-z+1/2
 
loop_
_atom_site_label
_atom_site_type_symbol
_atom_site_symmetry_multiplicity
_atom_site_Wyckoff_label
_atom_site_fract_x
_atom_site_fract_y
_atom_site_fract_z
_atom_site_occupancy
A Fe   4 f 0.33333 0.66667 0.40000 1.00000
B O   12 i 0.10000 0.25000 0.30000 1.00000
 
