# This file was generated by ISOCIF, version 2.3.11
# Harold T. Stokes and Branton J. Campbell
# Brigham Young University, Provo, Utah, USA
#
# Space Group:  36 Cmc2_1     C2v-12
# Space-group preferences: orthorhombic axes abc
# Lattice parameters: a=2, b=3, c=4, alpha=90, beta=90, gamma=90
# A 4a (0,y,z), y=0.1, z=0.2
# B 8b (x,y,z), x=0.1, y=0.2, z=0.3
 
data_isocif-output
_audit_creation_method ISOCIF
 
_cell_length_a    2.00000
_cell_length_b    3.00000
_cell_length_c    4.00000
_cell_angle_alpha 90.00000
_cell_angle_beta  90.00000
_cell_angle_gamma 90.00000
 
_symmetry_space_group_name_H-M "C m c 21"
_symmetry_Int_Tables_number 36
_space_group_reference_alt_setting_axes abc   
 
loop_
_space_group_symop_id
_space_group_symop_operation_xyz
1 x,y,z
2 -x,-y,z+1/2
3 -x,y,z
4 x,-y,z+1/2
5 x+1/2,y+1/2,z
6 -x+1/2,-y+1/2,z+1/2
7 -x+1/2,y+1/2,z
8 x+1/2,-y+1/2,z+1/2
 
loop_
_atom_site_label
_atom_site_type_symbol
_atom_site_symmetry_multiplicity
_atom_site_Wyckoff_label
_atom_site_fract_x
_atom_site_fract_y
_atom_site_fract_z
_atom_site_occupancy
A Fe   4 a 0.00000 0.10000 0.20000 1.00000
B O    8 b 0.10000 0.20000 0.30000 1.00000
 
