# This file was generated by ISOCIF, version 2.3.11
# Harold T. Stokes and Branton J. Campbell
# Brigham Young University, Provo, Utah, USA
#
# Space Group:   2 P-1        Ci-1
# 
# Lattice parameters: a=2, b=3, c=4, alpha=80, beta=82, gamma=85
# A 1a (0,0,0)
# B 2i (x,y,z), x=0.1, y=0.2, z=0.3
 
data_isocif-output
_audit_creation_method ISOCIF
 
_cell_length_a    2.00000
_cell_length_b    3.00000
_cell_length_c    4.00000
_cell_angle_alpha 80.00000
_cell_angle_beta  82.00000
_cell_angle_gamma 85.00000
 
_symmetry_space_group_name_H-M "P -1"
_symmetry_Int_Tables_number 2
 
loop_
_space_group_symop_id
_space_group_symop_operation_xyz
1 x,y,z
2 -x,-y,-z
 
loop_
_atom_site_label
_atom_site_type_symbol
_atom_site_symmetry_multiplicity
_atom_site_Wyckoff_label
_atom_site_fract_x
_atom_site_fract_y
_atom_site_fract_z
_atom_site_occupancy
A Fe   1 a 0.00000 0.00000 0.00000 1.00000
B O    2 i 0.10000 0.20000 0.30000 1.00000
 
