# This file was generated by ISOCIF, version 2.3.11
# Harold T. Stokes and Branton J. Campbell
# Brigham Young University, Provo, Utah, USA
#
# Space Group: 148 R-3        C3i-2
# Space-group preferences: rhombohedral axes
# Lattice parameters: a=2.02759, b=2.02759, c=2.02759, alpha=59.10185, beta=59.10185, gamma=59.10185
# A 3d (1/2,0,0)
# B 6f (x,y,z), x=0.40000 , y=0.45000 , z=0.05000
 
data_isocif-output
_audit_creation_method ISOCIF
 
_cell_length_a    2.02759
_cell_length_b    2.02759
_cell_length_c    2.02759
_cell_angle_alpha 59.10185
_cell_angle_beta  59.10185
_cell_angle_gamma 59.10185
 
_symmetry_space_group_name_H-M "R -3 (rhombohedral axes)"
_symmetry_Int_Tables_number 148
_space_group_reference_alt_setting_axes rhombohedral
 
loop_
_space_group_symop_id
_space_group_symop_operation_xyz
1 x,y,z
2 z,x,y
3 y,z,x
4 -x,-y,-z
5 -z,-x,-y
6 -y,-z,-x
 
loop_
_atom_site_label
_atom_site_type_symbol
_atom_site_symmetry_multiplicity
_atom_site_Wyckoff_label
_atom_site_fract_x
_atom_site_fract_y
_atom_site_fract_z
_atom_site_occupancy
A Fe   3 d 0.50000 0.00000 0.00000 1.00000
B O    6 f 0.40000 0.45000 0.05000 1.00000
 
